
  EPA STORM WATER MANAGEMENT MODEL - VERSION 5.1 (Build 5.1.015)
  --------------------------------------------------------------

  WARNING 04: minimum elevation drop used for Conduit LN59-10
  WARNING 04: minimum elevation drop used for Conduit LN9-0
  WARNING 02: maximum depth increased for Node N10-17-1
  WARNING 02: maximum depth increased for Node N10-31-1
  WARNING 02: maximum depth increased for Node N11-1
  WARNING 02: maximum depth increased for Node N11-14-1
  WARNING 02: maximum depth increased for Node N11-19-1
  WARNING 02: maximum depth increased for Node N11-26-1
  WARNING 02: maximum depth increased for Node N11-31-1
  WARNING 02: maximum depth increased for Node N11-39-1
  WARNING 02: maximum depth increased for Node N12-13-1
  WARNING 02: maximum depth increased for Node N12-20-1
  WARNING 02: maximum depth increased for Node N12-35-1
  WARNING 02: maximum depth increased for Node N12-45
  WARNING 02: maximum depth increased for Node N13-18-1
  WARNING 02: maximum depth increased for Node N13-48
  WARNING 02: maximum depth increased for Node N13-7-1
  WARNING 02: maximum depth increased for Node N39-12
  WARNING 02: maximum depth increased for Node N42-26-1
  WARNING 02: maximum depth increased for Node N43-27-1
  WARNING 02: maximum depth increased for Node N43-4
  WARNING 02: maximum depth increased for Node N46-1
  WARNING 02: maximum depth increased for Node N48-1
  WARNING 02: maximum depth increased for Node N48-10-1
  WARNING 02: maximum depth increased for Node N48-12-1
  WARNING 02: maximum depth increased for Node N59-21-1
  WARNING 02: maximum depth increased for Node N59-31
  WARNING 02: maximum depth increased for Node N59-43-1
  WARNING 02: maximum depth increased for Node N59-47-1
  WARNING 02: maximum depth increased for Node N59-5-1
  WARNING 02: maximum depth increased for Node N59-8
  WARNING 02: maximum depth increased for Node N6-16-1
  WARNING 02: maximum depth increased for Node N66-3-1
  WARNING 02: maximum depth increased for Node N66-8-1
  
  *********************************************************
  NOTE: The summary statistics displayed in this report are
  based on results found at every computational time step,  
  not just on results from each reporting time step.
  *********************************************************
  
  ****************
  Analysis Options
  ****************
  Flow Units ............... CMS
  Process Models:
    Rainfall/Runoff ........ YES
    RDII ................... NO
    Snowmelt ............... NO
    Groundwater ............ NO
    Flow Routing ........... YES
    Ponding Allowed ........ YES
    Water Quality .......... NO
  Infiltration Method ...... HORTON
  Flow Routing Method ...... DYNWAVE
  Surcharge Method ......... EXTRAN
  Starting Date ............ 10/14/2020 00:00:00
  Ending Date .............. 10/17/2020 00:00:00
  Antecedent Dry Days ...... 0.0
  Report Time Step ......... 00:01:00
  Wet Time Step ............ 00:01:00
  Dry Time Step ............ 00:01:00
  Routing Time Step ........ 0.50 sec
  Variable Time Step ....... YES
  Maximum Trials ........... 8
  Number of Threads ........ 1
  Head Tolerance ........... 0.001500 m
  
  
  **************************        Volume         Depth
  Runoff Quantity Continuity     hectare-m            mm
  **************************     ---------       -------
  Total Precipitation ......         5.292        84.800
  Evaporation Loss .........         0.000         0.000
  Infiltration Loss ........         0.116         1.856
  Surface Runoff ...........         5.179        83.000
  Final Storage ............         0.002         0.034
  Continuity Error (%) .....        -0.105
  
  
  **************************        Volume        Volume
  Flow Routing Continuity        hectare-m      10^6 ltr
  **************************     ---------     ---------
  Dry Weather Inflow .......         0.747         7.468
  Wet Weather Inflow .......         5.179        51.795
  Groundwater Inflow .......         0.000         0.000
  RDII Inflow ..............         0.000         0.000
  External Inflow ..........         0.333         3.327
  External Outflow .........         6.125        61.253
  Flooding Loss ............         0.000         0.000
  Evaporation Loss .........         0.000         0.000
  Exfiltration Loss ........         0.000         0.000
  Initial Stored Volume ....         0.008         0.083
  Final Stored Volume ......         0.144         1.438
  Continuity Error (%) .....        -0.028
  
  
  *************************
  Highest Continuity Errors
  *************************
  Node N61-1 (3.55%)
  Node N37-12 (2.15%)
  Node N42-26-1 (2.12%)
  Node N68-8 (1.80%)
  Node N21-1 (1.32%)
  
  
  ***************************
  Time-Step Critical Elements
  ***************************
  None
  
  
  ********************************
  Highest Flow Instability Indexes
  ********************************
  Link LN9-0 (1)
  
  
  *************************
  Routing Time Step Summary
  *************************
  Minimum Time Step           :     0.50 sec
  Average Time Step           :     0.50 sec
  Maximum Time Step           :     0.50 sec
  Percent in Steady State     :     0.00
  Average Iterations per Step :     2.00
  Percent Not Converging      :     0.00
  Time Step Frequencies       :
      0.500 -  0.500 sec      :   100.00 %
      0.500 -  0.500 sec      :     0.00 %
      0.500 -  0.500 sec      :     0.00 %
      0.500 -  0.500 sec      :     0.00 %
      0.500 -  0.500 sec      :     0.00 %
  
  
  ***************************
  Subcatchment Runoff Summary
  ***************************
  
  ------------------------------------------------------------------------------------------------------------------------------
                            Total      Total      Total      Total     Imperv       Perv      Total       Total     Peak  Runoff
                           Precip      Runon       Evap      Infil     Runoff     Runoff     Runoff      Runoff   Runoff   Coeff
  Subcatchment                 mm         mm         mm         mm         mm         mm         mm    10^6 ltr      CMS
  ------------------------------------------------------------------------------------------------------------------------------
  SP10                      84.80       0.00       0.00       1.16      69.27      14.63      83.89        0.70     0.08   0.989
  SP1-1                     84.80       0.00       0.00      11.98      25.51      47.38      72.89        0.62     0.06   0.860
  SP1-2                     84.80       0.00       0.00      11.45      30.40      42.97      73.37        0.91     0.08   0.865
  SP1-3                     84.80       0.00       0.00      10.02      35.85      38.95      74.81        0.52     0.05   0.882
  SP2                       84.80       0.00       0.00       0.28      81.00       3.52      84.52        1.01     0.11   0.997
  SP3                       84.80       0.00       0.00       0.00      84.79       0.00      84.79        0.78     0.08   1.000
  SP4                       84.80       0.00       0.00       0.07      83.76       0.95      84.71        1.73     0.17   0.999
  SP5-1                     84.80       0.00       0.00       2.90      70.05      11.87      81.92        1.49     0.16   0.966
  SP5-2                     84.80       0.00       0.00       1.99      74.64       8.19      82.83        1.72     0.19   0.977
  SP6-1                     84.80       0.00       0.00       0.00      84.81       0.00      84.81        0.28     0.03   1.000
  SP6-2                     84.80       0.00       0.00       0.00      84.88       0.00      84.88        0.16     0.02   1.001
  SP6-3                     84.80       0.00       0.00       0.00      84.84       0.00      84.84        0.25     0.03   1.000
  SP7-1                     84.80       0.00       0.00       1.88      75.12       7.90      83.03        0.21     0.02   0.979
  SP7-2                     84.80       0.00       0.00       4.78      60.34      19.80      80.15        0.57     0.07   0.945
  SP8                       84.80       0.00       0.00       0.57      77.23       7.04      84.27        0.73     0.08   0.994
  SP9                       84.80       0.00       0.00       0.00      84.89       0.00      84.89        0.44     0.05   1.001
  ST1                       84.80       0.00       0.00       0.91      72.75      11.20      83.95        0.86     0.10   0.990
  ST10                      84.80       0.00       0.00       0.00      84.86       0.00      84.86        0.13     0.02   1.001
  ST11                      84.80       0.00       0.00       0.00      84.85       0.00      84.85        0.10     0.01   1.001
  ST12                      84.80       0.00       0.00       5.19      58.38      21.32      79.70        0.22     0.03   0.940
  ST13-1                    84.80       0.00       0.00       0.00      84.88       0.00      84.88        0.12     0.01   1.001
  ST13-2                    84.80       0.00       0.00       0.00      84.93       0.00      84.93        0.05     0.01   1.002
  ST13-3                    84.80       0.00       0.00       0.00      84.98       0.00      84.98        0.09     0.01   1.002
  ST14                      84.80       0.00       0.00       0.00      85.18       0.00      85.18        0.08     0.01   1.005
  ST15-1                    84.80       0.00       0.00       0.00      84.83       0.00      84.83        0.48     0.05   1.000
  ST15-2                    84.80       0.00       0.00       0.60      81.68       2.56      84.24        0.68     0.08   0.993
  ST16                      84.80       0.00       0.00       0.00      85.83       0.00      85.83        0.19     0.02   1.012
  ST17                      84.80       0.00       0.00       0.37      79.79       4.68      84.47        0.64     0.07   0.996
  ST18                      84.80       0.00       0.00       0.00      84.85       0.00      84.85        0.50     0.06   1.001
  ST19                      84.80       0.00       0.00       1.21      68.76      14.94      83.70        0.86     0.10   0.987
  ST2                       84.80       0.00       0.00       0.00      84.94       0.00      84.94        0.60     0.07   1.002
  ST20                      84.80       0.00       0.00       3.09      45.26      36.53      81.79        0.38     0.04   0.964
  ST21                      84.80       0.00       0.00       4.20      29.64      51.20      80.84        0.13     0.01   0.953
  ST22                      84.80       0.00       0.00       0.00      84.89       0.00      84.89        0.39     0.04   1.001
  ST23-1                    84.80       0.00       0.00       1.23      78.48       5.09      83.57        1.05     0.11   0.986
  ST23-2                    84.80       0.00       0.00       0.00      84.88       0.00      84.88        0.29     0.03   1.001
  ST24                      84.80       0.00       0.00       0.00      85.00       0.00      85.00        0.07     0.01   1.002
  ST25                      84.80       0.00       0.00       0.00      85.60       0.00      85.60        0.04     0.00   1.009
  ST26-1                    84.80       0.00       0.00       1.44      77.44       5.93      83.37        1.32     0.14   0.983
  ST26-2                    84.80       0.00       0.00       1.47      77.35       6.26      83.61        0.64     0.08   0.986
  ST27                      84.80       0.00       0.00       1.68      63.88      19.24      83.12        0.96     0.09   0.980
  ST28                      84.80       0.00       0.00       2.38      56.35      26.06      82.41        0.92     0.09   0.972
  ST3                       84.80       0.00       0.00       0.00      84.80       0.00      84.80        0.61     0.06   1.000
  ST4-1                     84.80       0.00       0.00       0.00      84.79       0.00      84.79        0.28     0.03   1.000
  ST4-2                     84.80       0.00       0.00       2.02      74.53       8.24      82.77        0.30     0.03   0.976
  ST4-3                     84.80       0.00       0.00       0.00      84.90       0.00      84.90        0.15     0.02   1.001
  ST5-1                     84.80       0.00       0.00       2.25      73.25       9.40      82.65        0.25     0.03   0.975
  ST5-2                     84.80       0.00       0.00       0.79      80.76       3.33      84.09        0.17     0.02   0.992
  ST6                       84.80       0.00       0.00       0.00      84.83       0.00      84.83        0.22     0.02   1.000
  ST7                       84.80       0.00       0.00       0.12      83.23       1.52      84.74        1.28     0.15   0.999
  ST8-1                     84.80       0.00       0.00       0.00      84.85       0.00      84.85        0.15     0.02   1.001
  ST8-2                     84.80       0.00       0.00       0.00      84.86       0.00      84.86        0.12     0.01   1.001
  ST9                       84.80       0.00       0.00       0.00      84.88       0.00      84.88        0.21     0.02   1.001
  SU1                       84.80       0.00       0.00       5.13      58.65      21.12      79.77        1.03     0.12   0.941
  SU10                      84.80       0.00       0.00       0.00      84.95       0.00      84.95        0.34     0.04   1.002
  SU11                      84.80       0.00       0.00       0.00      84.93       0.00      84.93        0.06     0.01   1.002
  SU12                      84.80       0.00       0.00       5.11      58.71      21.11      79.82        0.11     0.01   0.941
  SU13                      84.80       0.00       0.00       0.63      81.61       2.67      84.28        0.27     0.03   0.994
  SU14-1                    84.80       0.00       0.00       5.84      55.82      23.15      78.97        0.65     0.07   0.931
  SU14-2                    84.80       0.00       0.00       2.10      74.04       8.67      82.72        1.06     0.12   0.975
  SU15                      84.80       0.00       0.00       3.54      66.73      14.60      81.33        0.64     0.07   0.959
  SU16-1                    84.80       0.00       0.00       0.00      84.82       0.00      84.82        0.32     0.04   1.000
  SU16-2                    84.80       0.00       0.00       4.13      63.88      16.83      80.71        0.91     0.10   0.952
  SU17-1                    84.80       0.00       0.00       5.71      55.84      23.32      79.16        0.28     0.03   0.933
  SU17-2                    84.80       0.00       0.00       0.58      81.80       2.41      84.21        0.82     0.08   0.993
  SU17-3                    84.80       0.00       0.00       1.15      78.91       4.82      83.73        0.37     0.04   0.987
  SU18-1                    84.80       0.00       0.00       0.00      84.82       0.00      84.82        0.77     0.08   1.000
  SU18-2                    84.80       0.00       0.00       4.76      60.88      19.18      80.07        1.11     0.12   0.944
  SU19-1                    84.80       0.00       0.00       4.80      60.31      19.78      80.09        0.37     0.04   0.944
  SU19-2                    84.80       0.00       0.00       1.50      77.10       6.24      83.34        0.47     0.05   0.983
  SU19-3                    84.80       0.00       0.00       1.05      79.38       4.44      83.82        0.65     0.07   0.988
  SU19-4                    84.80       0.00       0.00       3.51      66.88      14.48      81.36        0.48     0.06   0.959
  SU2                       84.80       0.00       0.00       2.20      73.55       9.09      82.64        0.42     0.05   0.975
  SU20-1                    84.80       0.00       0.00       0.00      84.81       0.00      84.81        0.41     0.04   1.000
  SU20-2                    84.80       0.00       0.00       0.00      84.81       0.00      84.81        0.48     0.05   1.000
  SU20-3                    84.80       0.00       0.00       2.51      72.05      10.25      82.30        0.30     0.03   0.971
  SU21                      84.80       0.00       0.00       4.53      61.82      18.50      80.32        0.32     0.04   0.947
  SU22                      84.80       0.00       0.00       0.00      84.83       0.00      84.83        0.36     0.04   1.000
  SU23                      84.80       0.00       0.00       0.00      85.25       0.00      85.25        0.06     0.01   1.005
  SU24                      84.80       0.00       0.00       0.00      85.07       0.00      85.07        0.01     0.00   1.003
  SU25                      84.80       0.00       0.00       0.00      85.25       0.00      85.25        0.07     0.01   1.005
  SU26                      84.80       0.00       0.00       0.00      84.92       0.00      84.92        0.02     0.00   1.001
  SU27                      84.80       0.00       0.00       0.00      85.11       0.00      85.11        0.10     0.01   1.004
  SU28                      84.80       0.00       0.00       0.00      84.90       0.00      84.90        0.23     0.03   1.001
  SU29                      84.80       0.00       0.00       0.00      84.88       0.00      84.88        0.20     0.02   1.001
  SU3                       84.80       0.00       0.00       0.00      84.92       0.00      84.92        0.11     0.01   1.001
  SU30                      84.80       0.00       0.00       0.00      84.88       0.00      84.88        0.08     0.01   1.001
  SU31                      84.80       0.00       0.00       1.08      79.22       4.54      83.76        0.16     0.02   0.988
  SU32                      84.80       0.00       0.00       1.64      76.37       6.87      83.24        0.81     0.09   0.982
  SU33                      84.80       0.00       0.00       0.52      82.11       2.18      84.30        0.96     0.10   0.994
  SU34-1                    84.80       0.00       0.00       0.00      84.93       0.00      84.93        0.33     0.04   1.002
  SU34-2                    84.80       0.00       0.00       0.00      84.92       0.00      84.92        0.12     0.01   1.001
  SU35                      84.80       0.00       0.00       0.00      84.83       0.00      84.83        0.33     0.04   1.000
  SU36-1                    84.80       0.00       0.00       0.00      84.93       0.00      84.93        0.10     0.01   1.002
  SU36-2                    84.80       0.00       0.00       0.00      84.86       0.00      84.86        0.29     0.03   1.001
  SU37                      84.80       0.00       0.00       0.00      84.84       0.00      84.84        0.18     0.02   1.001
  SU38-1                    84.80       0.00       0.00       0.00      84.85       0.00      84.85        0.43     0.05   1.001
  SU38-2                    84.80       0.00       0.00       0.00      84.84       0.00      84.84        0.63     0.07   1.000
  SU38-3                    84.80       0.00       0.00       0.00      85.04       0.00      85.04        0.09     0.01   1.003
  SU39                      84.80       0.00       0.00       0.00      84.83       0.00      84.83        0.09     0.01   1.000
  SU4                       84.80       0.00       0.00       0.00      85.01       0.00      85.01        0.27     0.03   1.003
  SU40                      84.80       0.00       0.00       0.00      84.86       0.00      84.86        0.24     0.03   1.001
  SU41-1                    84.80       0.00       0.00       0.81      80.65       3.42      84.07        0.30     0.03   0.991
  SU41-2                    84.80       0.00       0.00       0.00      84.91       0.00      84.91        0.35     0.04   1.001
  SU42                      84.80       0.00       0.00       0.00      84.88       0.00      84.88        0.20     0.02   1.001
  SU43                      84.80       0.00       0.00       0.00      84.88       0.00      84.88        0.27     0.03   1.001
  SU44                      84.80       0.00       0.00       0.00      84.90       0.00      84.90        0.08     0.01   1.001
  SU45                      84.80       0.00       0.00       0.00      84.96       0.00      84.96        0.20     0.02   1.002
  SU5                       84.80       0.00       0.00       0.00      84.85       0.00      84.85        0.37     0.04   1.001
  SU6                       84.80       0.00       0.00       0.00      84.83       0.00      84.83        0.42     0.05   1.000
  SU7                       84.80       0.00       0.00       4.43      62.52      17.88      80.40        0.52     0.06   0.948
  SU8                       84.80       0.00       0.00       0.00      84.87       0.00      84.87        0.58     0.07   1.001
  SU9-1                     84.80       0.00       0.00       1.09      79.20       4.51      83.71        0.87     0.09   0.987
  SU9-2                     84.80       0.00       0.00       2.19      73.61       9.02      82.62        1.09     0.12   0.974
  
  
  ******************
  Node Depth Summary
  ******************
  
  ---------------------------------------------------------------------------------
                                 Average  Maximum  Maximum  Time of Max    Reported
                                   Depth    Depth      HGL   Occurrence   Max Depth
  Node                 Type       Meters   Meters   Meters  days hr:min      Meters
  ---------------------------------------------------------------------------------
  N10-1                JUNCTION     0.13     0.85     6.59     1  18:50        0.85
  N10-17-1             JUNCTION     0.10     0.71     6.44     1  18:48        0.71
  N10-31-1             JUNCTION     0.07     0.60     6.18     1  18:46        0.60
  N11-1                JUNCTION     0.31     1.67     7.49     1  20:29        1.67
  N11-14-1             JUNCTION     0.42     1.68     7.37     1  20:30        1.68
  N11-19-1             JUNCTION     0.50     1.59     7.18     1  20:30        1.59
  N11-26-1             JUNCTION     0.29     1.19     6.97     1  20:27        1.19
  N11-31-1             JUNCTION     0.52     1.27     6.80     1  20:26        1.27
  N11-39-1             JUNCTION     0.11     0.59     6.51     1  20:16        0.59
  N11-46               JUNCTION     0.20     0.51     5.46     1  18:45        0.51
  N11-46-1             JUNCTION     0.38     0.68     5.46     1  18:45        0.68
  N11-5                JUNCTION     0.44     1.77     7.45     1  20:29        1.77
  N1-17                JUNCTION     0.81     0.91     5.23     1  18:45        0.91
  N11-9                JUNCTION     0.38     1.67     7.42     1  20:30        1.67
  N12-13-1             JUNCTION     0.18     1.53     7.49     1  20:31        1.53
  N12-20-1             JUNCTION     0.40     1.76     7.49     1  20:31        1.76
  N12-28               JUNCTION     0.14     1.35     7.48     1  20:30        1.35
  N12-35-1             JUNCTION     0.09     1.01     7.47     1  20:31        1.01
  N12-45               JUNCTION     0.20     0.67     6.41     1  19:53        0.67
  N1-26-1              JUNCTION     1.06     1.73     5.79     0  00:00        1.14
  N12-7                JUNCTION     0.33     1.69     7.49     1  20:28        1.69
  N13-18-1             JUNCTION     0.09     0.82     6.65     1  18:50        0.82
  N13-25-1             JUNCTION     0.08     0.78     6.65     1  18:51        0.78
  N13-34               JUNCTION     0.01     0.14     6.65     1  18:51        0.14
  N13-48               JUNCTION     0.38     0.90     6.41     1  19:53        0.90
  N13-7-1              JUNCTION     0.18     0.94     6.64     1  18:49        0.94
  N14-1                JUNCTION     0.20     0.57     6.54     1  19:33        0.57
  N1-4-1               JUNCTION     0.41     0.61     5.34     1  18:45        0.61
  N15-1                JUNCTION     0.45     1.21     6.81     1  20:24        1.21
  N16-1                JUNCTION     0.18     1.06     6.98     1  20:28        1.06
  N17-1                JUNCTION     0.18     1.04     7.19     1  20:30        1.04
  N17-13-1             JUNCTION     0.10     0.96     7.19     1  20:30        0.96
  N17-18               JUNCTION     0.10     0.98     7.18     1  20:30        0.98
  N1-8                 JUNCTION     0.80     0.96     5.29     1  18:45        0.96
  N18-1                JUNCTION     0.32     1.18     7.19     1  20:30        1.18
  N19-1                JUNCTION     0.19     1.50     7.47     1  20:31        1.50
  N19-10               JUNCTION     0.19     1.48     7.42     1  20:30        1.48
  N20-1                JUNCTION     0.08     0.90     7.55     1  20:26        0.90
  N20-33               JUNCTION     0.21     1.53     7.49     1  20:30        1.53
  N2-1                 JUNCTION     0.21     0.66     6.26     1  18:45        0.66
  N21-1                JUNCTION     0.37     1.23     7.48     1  20:36        1.23
  N21-10               JUNCTION     0.16     1.00     7.48     1  20:37        1.00
  N21-11-1             JUNCTION     0.10     0.94     7.48     1  20:34        0.94
  N21-15-1             JUNCTION     0.08     0.91     7.48     1  20:34        0.91
  N21-19               JUNCTION     0.10     1.09     7.48     1  20:35        1.09
  N21-24               JUNCTION     0.12     1.20     7.47     1  20:35        1.20
  N21-5-1              JUNCTION     0.36     1.22     7.48     1  20:36        1.22
  N22-1                JUNCTION     0.18     1.03     7.48     1  20:34        1.03
  N23-1                JUNCTION     0.24     1.08     7.48     1  20:33        1.08
  N24-1                JUNCTION     0.07     0.84     7.48     1  20:35        0.84
  N25-1                JUNCTION     0.41     1.27     7.48     1  20:36        1.27
  N26-6                JUNCTION     0.23     1.75     7.82     1  20:30        1.75
  N27-15               JUNCTION     0.46     2.09     7.94     1  20:28        2.09
  N27-30               JUNCTION     0.32     1.85     7.84     1  20:30        1.85
  N28-1                JUNCTION     0.37     1.58     7.50     1  20:26        1.58
  N29-1                JUNCTION     0.14     1.35     7.49     1  20:30        1.35
  N30-1                JUNCTION     0.36     1.72     7.70     1  20:26        1.72
  N30-5                JUNCTION     0.15     1.39     7.58     1  20:29        1.39
  N3-1                 JUNCTION     0.02     0.30     6.49     1  18:47        0.30
  N31-1                JUNCTION     0.33     2.06     8.05     1  20:28        2.06
  N31-15-1             JUNCTION     0.52     2.25     8.05     1  20:30        2.25
  N31-17-1             JUNCTION     0.54     2.25     8.03     1  20:27        2.25
  N31-22-1             JUNCTION     0.41     2.12     8.03     1  20:26        2.12
  N31-32-1             JUNCTION     0.19     1.85     8.02     1  20:26        1.85
  N31-48               JUNCTION     0.41     1.92     7.86     1  20:26        1.92
  N32-1                JUNCTION     0.49     2.17     8.04     1  20:26        2.17
  N33-1                JUNCTION     0.42     2.14     8.04     1  20:27        2.14
  N34-1                JUNCTION     0.45     2.21     8.08     1  20:26        2.21
  N34-11-1             JUNCTION     0.45     2.20     8.07     1  20:26        2.20
  N35-1                JUNCTION     0.14     1.67     8.07     1  20:26        1.67
  N36-1                JUNCTION     0.50     1.01     6.41     1  19:43        1.01
  N36-12               JUNCTION     0.14     0.49     6.49     1  18:47        0.49
  N36-16-1             JUNCTION     0.23     0.64     6.49     1  18:45        0.64
  N36-20-1             JUNCTION     0.03     0.34     6.47     1  18:46        0.34
  N36-29               JUNCTION     0.46     1.10     6.17     1  18:47        1.10
  N36-38-1             JUNCTION     0.03     0.41     5.84     1  18:46        0.41
  N36-6                JUNCTION     0.01     0.20     6.47     1  18:45        0.20
  N37-12               JUNCTION     0.76     1.26     6.49     1  18:46        1.26
  N38-11               JUNCTION     0.05     0.51     6.65     1  18:45        0.51
  N38-1-1              JUNCTION     0.05     0.51     6.58     1  18:45        0.51
  N38-18               JUNCTION     0.19     0.69     6.69     1  18:45        0.69
  N38-29               JUNCTION     0.21     0.71     6.69     1  18:45        0.70
  N38-31               JUNCTION     0.23     0.72     6.68     1  18:45        0.72
  N38-43               JUNCTION     0.02     0.42     6.66     1  18:45        0.42
  N38-49               JUNCTION     0.05     0.51     6.61     1  18:45        0.51
  N39-1                JUNCTION     0.33     0.83     6.58     1  18:45        0.83
  N39-12               JUNCTION     0.64     1.15     6.58     1  18:45        1.15
  N39-7                JUNCTION     0.52     1.02     6.58     1  18:45        1.02
  N40-1                JUNCTION     0.01     0.06     8.11     1  18:39        0.06
  N4-1                 JUNCTION     0.15     1.02     6.85     1  18:45        1.02
  N41-1                JUNCTION     0.01     0.07     8.21     1  18:39        0.07
  N42-14               JUNCTION     0.38     0.87     6.54     1  18:45        0.86
  N42-26-1             JUNCTION     0.91     1.42     6.49     1  18:45        1.42
  N43-14               JUNCTION     0.70     1.21     6.57     1  18:46        1.21
  N43-27-1             JUNCTION     0.53     1.02     6.55     1  18:46        1.02
  N43-4                JUNCTION     0.52     1.04     6.57     1  18:45        1.04
  N44-1                JUNCTION     0.32     0.76     6.61     1  18:45        0.76
  N45-1                JUNCTION     0.04     0.42     6.58     1  18:45        0.42
  N46-1                JUNCTION     0.68     1.19     6.59     1  18:45        1.19
  N46-15               JUNCTION     0.64     1.16     6.58     1  18:47        1.16
  N46-7                JUNCTION     0.25     0.75     6.58     1  18:45        0.75
  N47-10               JUNCTION     0.41     0.80     6.04     1  18:45        0.80
  N48-1                JUNCTION     0.40     0.85     6.54     1  18:46        0.85
  N48-10-1             JUNCTION     0.02     0.40     6.09     1  18:45        0.40
  N48-11               JUNCTION     0.07     0.44     6.07     1  18:45        0.44
  N48-12-1             JUNCTION     0.40     0.80     6.05     1  18:45        0.80
  N48-4                JUNCTION     0.01     0.17     6.49     1  18:47        0.17
  N49-1                JUNCTION     0.07     0.28     6.08     1  18:45        0.28
  N49-18               JUNCTION     0.08     0.29     6.07     1  18:45        0.29
  N49-9-1              JUNCTION     0.08     0.29     6.08     1  18:45        0.29
  N50-10               JUNCTION     0.01     0.07     6.12     1  18:39        0.07
  N5-1                 JUNCTION     0.18     0.76     6.66     1  18:50        0.76
  N51-1                JUNCTION     0.19     0.65     6.56     1  18:46        0.65
  N5-11                JUNCTION     0.20     0.78     6.66     1  18:50        0.78
  N51-9                JUNCTION     0.22     0.68     6.56     1  18:47        0.68
  N52-11               JUNCTION     0.23     0.71     6.57     1  18:45        0.71
  N5-3                 JUNCTION     0.21     0.79     6.66     1  18:51        0.79
  N54-10-1             JUNCTION     0.16     0.60     6.74     1  18:48        0.60
  N54-13-1             JUNCTION     0.32     0.76     6.75     1  18:48        0.76
  N54-25-1             JUNCTION     0.03     0.47     6.75     1  18:48        0.47
  N54-27-1             JUNCTION     0.04     0.51     6.75     1  18:47        0.51
  N54-38               JUNCTION     0.10     0.68     6.71     1  18:45        0.68
  N54-4                JUNCTION     0.01     0.32     6.72     1  18:47        0.32
  N55-1                JUNCTION     0.01     0.29     6.76     1  18:46        0.29
  N56-1                JUNCTION     0.05     0.52     6.75     1  18:47        0.52
  N57-1                JUNCTION     0.01     0.24     6.77     1  18:47        0.24
  N58-1                JUNCTION     0.19     0.64     6.75     1  18:47        0.64
  N59-1                JUNCTION     0.00     0.22     6.69     1  18:48        0.22
  N59-12               JUNCTION     0.19     0.80     6.68     1  18:48        0.80
  N59-21-1             JUNCTION     0.58     1.19     6.66     1  18:47        1.19
  N59-28               JUNCTION     0.36     0.93     6.63     1  18:47        0.93
  N59-31               JUNCTION     0.27     0.82     6.61     1  18:47        0.82
  N59-39               JUNCTION     0.06     0.53     6.54     1  18:47        0.53
  N59-43-1             JUNCTION     0.08     0.68     6.47     1  18:47        0.68
  N59-47-1             JUNCTION     0.12     0.69     6.41     1  18:48        0.69
  N59-5-1              JUNCTION     0.18     0.79     6.69     1  18:48        0.79
  N59-8                JUNCTION     0.11     0.72     6.69     1  18:48        0.72
  N60-1                JUNCTION     0.17     0.55     6.70     1  18:47        0.55
  N60-4                JUNCTION     0.02     0.39     6.70     1  18:47        0.39
  N61-1                JUNCTION     0.82     1.43     6.66     1  18:48        1.43
  N6-16-1              JUNCTION     0.26     0.89     6.65     1  18:49        0.89
  N62-1                JUNCTION     0.01     0.09     6.57     1  18:39        0.09
  N6-29                JUNCTION     0.27     0.89     6.64     1  18:51        0.89
  N63-1                JUNCTION     0.02     0.38     6.41     1  18:48        0.38
  N64-1                JUNCTION     0.09     0.63     6.35     1  18:48        0.63
  N64-22               JUNCTION     0.07     0.55     6.07     1  18:45        0.55
  N64-30               JUNCTION     0.11     0.58     5.97     1  18:45        0.58
  N65-1                JUNCTION     0.01     0.13     6.22     1  18:39        0.13
  N65-32               JUNCTION     0.07     0.30     5.89     1  18:42        0.30
  N66-1                JUNCTION     0.37     0.89     5.64     0  00:01        0.51
  N66-3-1              JUNCTION     0.38     0.90     5.64     0  00:01        0.52
  N66-6                JUNCTION     0.77     1.20     5.55     0  00:01        1.04
  N66-8-1              JUNCTION     0.94     1.12     5.30     0  00:01        1.02
  N67-1                JUNCTION     0.01     0.09     5.67     1  18:39        0.09
  N68-8                JUNCTION     0.51     1.02     6.41     1  19:44        1.02
  N6-9                 JUNCTION     0.22     0.85     6.65     1  18:50        0.85
  N7-1                 JUNCTION     0.05     0.61     6.67     1  18:48        0.61
  N8-21                JUNCTION     0.04     0.49     6.36     1  19:46        0.49
  N8-49-1              JUNCTION     0.09     0.61     6.33     1  19:44        0.61
  N8-67                JUNCTION     0.12     0.61     6.29     1  19:43        0.61
  N8-82                JUNCTION     0.12     0.56     6.24     1  19:44        0.56
  N8-96                JUNCTION     0.01     0.13     5.88     1  19:44        0.13
  N8-98-1              JUNCTION     2.75     3.97     6.34     0  00:00        2.93
  N1-30                OUTFALL      0.47     0.47     5.12     0  00:00        0.47
  N36-45               OUTFALL      0.36     0.41     5.17     1  18:46        0.41
  N66-12               OUTFALL      0.97     0.97     5.12     0  00:00        0.97
  N9-4                 OUTFALL      2.25     2.25     5.12     0  00:00        2.25
  
  
  *******************
  Node Inflow Summary
  *******************
  
  -------------------------------------------------------------------------------------------------
                                  Maximum  Maximum                  Lateral       Total        Flow
                                  Lateral    Total  Time of Max      Inflow      Inflow     Balance
                                   Inflow   Inflow   Occurrence      Volume      Volume       Error
  Node                 Type           CMS      CMS  days hr:min    10^6 ltr    10^6 ltr     Percent
  -------------------------------------------------------------------------------------------------
  N10-1                JUNCTION     0.000    0.168     1  18:43           0        4.42       0.046
  N10-17-1             JUNCTION     0.000    0.222     1  18:45           0        5.32       0.004
  N10-31-1             JUNCTION     0.000    0.297     1  18:45           0        6.48       0.112
  N11-1                JUNCTION     0.000    0.175     1  18:42           0        6.51       0.030
  N11-14-1             JUNCTION     0.000    0.261     1  20:24           0        10.1       0.057
  N11-19-1             JUNCTION     0.000    0.290     1  20:40           0        10.9       0.079
  N11-26-1             JUNCTION     0.000    0.316     1  20:24           0        11.6       0.026
  N11-31-1             JUNCTION     0.000    0.342     1  20:25           0        12.3       0.097
  N11-39-1             JUNCTION     0.000    0.380     1  20:15           0        13.3      -0.002
  N11-46               JUNCTION     0.000    0.380     1  20:16           0        13.3       0.004
  N11-46-1             JUNCTION     0.000    0.643     1  19:35           0        19.8      -0.016
  N11-5                JUNCTION     0.011    0.164     1  19:31       0.115        6.62       0.055
  N1-17                JUNCTION     0.077    1.290     0  00:00       0.972        21.7       0.226
  N11-9                JUNCTION     0.015    0.165     1  19:28       0.155        6.78       0.048
  N12-13-1             JUNCTION     0.000    0.114     1  18:39           0        1.55      -0.027
  N12-20-1             JUNCTION     0.000    0.096     1  18:38           0        1.24       0.481
  N12-28               JUNCTION     0.041    0.084     1  18:37       0.414        1.15       0.006
  N12-35-1             JUNCTION     0.000    0.228     1  20:26           0        4.25      -0.006
  N12-45               JUNCTION     0.000    0.339     1  19:39           0        5.97       0.150
  N1-26-1              JUNCTION     0.000    7.692     0  00:00           0        23.7       0.280
  N12-7                JUNCTION     0.009    0.091     1  18:39       0.093        1.47       0.184
  N13-18-1             JUNCTION     0.000    0.097     1  18:35           0        2.42       0.007
  N13-25-1             JUNCTION     0.000    0.095     1  18:37           0        1.63       0.022
  N13-34               JUNCTION     0.051    0.051     1  18:39       0.512       0.512       0.023
  N13-48               JUNCTION     0.000    0.338     1  19:40           0        5.97       0.034
  N13-7-1              JUNCTION     0.000    0.195     1  18:40           0        4.42       0.054
  N14-1                JUNCTION     0.099    0.099     1  18:39       0.981       0.981       0.491
  N1-4-1               JUNCTION     0.000    0.644     1  19:36           0        19.9       0.070
  N15-1                JUNCTION     0.071    0.071     1  18:39         0.7       0.702       1.027
  N16-1                JUNCTION     0.065    0.065     1  18:39       0.711       0.711       0.209
  N17-1                JUNCTION     0.028    0.028     1  18:39       0.323       0.323       0.185
  N17-13-1             JUNCTION     0.000    0.032     1  18:43           0       0.667       0.017
  N17-18               JUNCTION     0.018    0.036     1  19:52       0.178       0.845       0.004
  N1-8                 JUNCTION     0.061    0.694     1  18:46       0.653        20.6       0.176
  N18-1                JUNCTION     0.031    0.031     1  18:39       0.345       0.346       0.294
  N19-1                JUNCTION     0.000    0.108     1  18:44           0        2.92       0.024
  N19-10               JUNCTION     0.045    0.110     1  22:05       0.446        3.32       0.020
  N20-1                JUNCTION     0.147    0.147     1  18:39        1.49        1.49       0.019
  N20-33               JUNCTION     0.029    0.132     1  18:42       0.283        1.77       0.100
  N2-1                 JUNCTION     0.107    0.107     1  18:39        1.17        1.17       0.566
  N21-1                JUNCTION     0.000    0.028     1  18:38           0       0.151       1.338
  N21-10               JUNCTION     0.006    0.055     1  18:39      0.0606       0.446       0.144
  N21-11-1             JUNCTION     0.000    0.058     1  18:42           0       0.687       0.069
  N21-15-1             JUNCTION     0.000    0.056     1  18:43           0       0.852       0.007
  N21-19               JUNCTION     0.013    0.054     1  18:43       0.135       0.983       0.005
  N21-24               JUNCTION     0.024    0.056     1  18:44       0.252        1.21       0.005
  N21-5-1              JUNCTION     0.000    0.042     1  18:38           0       0.358       0.910
  N22-1                JUNCTION     0.010    0.021     1  18:38       0.102        0.11       0.498
  N23-1                JUNCTION     0.025    0.025     1  18:39       0.243       0.243       0.863
  N24-1                JUNCTION     0.017    0.017     1  18:39       0.175       0.175       0.012
  N25-1                JUNCTION     0.014    0.021     1  18:39       0.143       0.149       0.911
  N26-6                JUNCTION     0.076    0.155     1  19:51       0.781        5.05       0.074
  N27-15               JUNCTION     0.054    0.133     1  18:45        0.56        4.28       0.160
  N27-30               JUNCTION     0.000    0.122     1  19:54           0        4.27       0.046
  N28-1                JUNCTION     0.073    0.073     1  18:39       0.737       0.737       0.938
  N29-1                JUNCTION     0.057    0.057     1  18:39       0.584       0.584       0.039
  N30-1                JUNCTION     0.033    0.169     1  19:52       0.336        3.57       0.104
  N30-5                JUNCTION     0.015    0.171     1  20:18       0.139        3.61       0.012
  N3-1                 JUNCTION     0.078    0.078     1  18:42       0.904       0.904       0.204
  N31-1                JUNCTION     0.022    0.041     1  18:42       0.221       0.259       1.056
  N31-15-1             JUNCTION     0.000    0.111     1  18:40           0         2.5       0.371
  N31-17-1             JUNCTION     0.005    0.121     1  18:43      0.0453        3.76       0.213
  N31-22-1             JUNCTION     0.000    0.107     1  18:40           0         1.9       0.377
  N31-32-1             JUNCTION     0.109    0.153     1  18:39        1.06        3.02       0.024
  N31-48               JUNCTION     0.111    0.164     1  19:52        1.21        3.54       0.227
  N32-1                JUNCTION     0.086    0.086     1  18:42        1.02        1.02       0.510
  N33-1                JUNCTION     0.095    0.095     1  18:42        1.08        1.08       0.346
  N34-1                JUNCTION     0.139    0.139     1  18:39        1.51        1.51       0.088
  N34-11-1             JUNCTION     0.000    0.150     1  18:39           0        2.25       0.216
  N35-1                JUNCTION     0.076    0.076     1  18:39       0.733       0.734       0.004
  N36-1                JUNCTION     0.000    0.209     1  18:45           0        1.63       0.962
  N36-12               JUNCTION     0.091    0.123     1  18:47       0.999        1.28       0.686
  N36-16-1             JUNCTION     0.000    0.305     1  18:47           0        4.38       0.314
  N36-20-1             JUNCTION     0.000    0.752     1  18:45           0        11.1       0.007
  N36-29               JUNCTION     0.075    0.803     1  18:45       0.728        11.7       0.503
  N36-38-1             JUNCTION     0.000    1.186     1  18:46           0        15.6       0.003
  N36-6                JUNCTION     0.119    0.216     1  18:45        1.24        1.83       0.197
  N37-12               JUNCTION     0.067    0.303     1  18:45       0.678        3.81       2.199
  N38-11               JUNCTION     0.042    0.120     1  18:39       0.426        1.66       0.025
  N38-1-1              JUNCTION     0.000    0.132     1  18:42           0        1.97       0.014
  N38-18               JUNCTION     0.121    0.121     1  18:39        1.15        1.33       0.220
  N38-29               JUNCTION     0.013    0.039     1  18:36       0.132       0.355       0.633
  N38-31               JUNCTION     0.048    0.064     1  18:40       0.484       0.703       0.444
  N38-43               JUNCTION     0.056    0.105     1  18:45        0.58        1.15       0.005
  N38-49               JUNCTION     0.046    0.144     1  18:42       0.485        1.59       0.041
  N39-1                JUNCTION     0.000    0.429     1  18:43           0         6.7       0.319
  N39-12               JUNCTION     0.000    0.159     1  18:43           0        2.37       0.318
  N39-7                JUNCTION     0.021    0.172     1  18:44       0.199        2.56       0.438
  N40-1                JUNCTION     0.031    0.031     1  18:39        0.31        0.31       0.011
  N4-1                 JUNCTION     0.171    0.171     1  18:42           2           2       0.135
  N41-1                JUNCTION     0.040    0.040     1  18:39       0.399       0.399       0.020
  N42-14               JUNCTION     0.032    0.125     1  18:45       0.313        1.52       1.051
  N42-26-1             JUNCTION     0.000    0.255     1  18:47           0        3.14       2.166
  N43-14               JUNCTION     0.067    0.406     1  18:45       0.728        6.16       0.813
  N43-27-1             JUNCTION     0.000    0.497     1  18:45           0        7.15       0.791
  N43-4                JUNCTION     0.000    0.352     1  18:45           0        5.54       0.339
  N44-1                JUNCTION     0.117    0.117     1  18:39        1.21        1.21       0.256
  N45-1                JUNCTION     0.043    0.043     1  18:39       0.424       0.424       0.101
  N46-1                JUNCTION     0.000    0.128     1  18:47           0        3.52       0.472
  N46-15               JUNCTION     0.186    0.275     1  18:42        1.98        4.71       1.147
  N46-7                JUNCTION     0.068    0.125     1  19:00       0.688        3.01       0.463
  N47-10               JUNCTION     0.121    0.402     1  18:45        1.25           4       1.289
  N48-1                JUNCTION     0.000    0.196     1  18:45           0        3.42       0.546
  N48-10-1             JUNCTION     0.000    0.205     1  18:47           0        1.47      -0.028
  N48-11               JUNCTION     0.001    0.207     1  18:47      0.0111        1.49       0.025
  N48-12-1             JUNCTION     0.084    0.299     1  18:45       0.894        2.77       0.674
  N48-4                JUNCTION     0.007    0.196     1  18:47      0.0703        1.35       0.001
  N49-1                JUNCTION     0.009    0.009     1  18:39      0.0876      0.0877       0.838
  N49-18               JUNCTION     0.008    0.028     1  18:39       0.077       0.393       0.575
  N49-9-1              JUNCTION     0.002    0.028     1  18:38      0.0198       0.318       0.815
  N50-10               JUNCTION     0.035    0.035     1  18:39       0.347       0.347       0.177
  N5-1                 JUNCTION     0.000    0.017     1  18:39           0      0.0498       0.911
  N51-1                JUNCTION     0.000    0.017     1  17:28           0      0.0572       2.120
  N5-11                JUNCTION     0.049    0.049     1  18:39       0.513        0.81       0.331
  N51-9                JUNCTION     0.044    0.044     1  18:39       0.445        0.51       0.616
  N52-11               JUNCTION     0.077    0.134     1  18:42       0.779         2.8       0.327
  N5-3                 JUNCTION     0.028    0.035     1  18:39       0.289       0.348       0.481
  N54-10-1             JUNCTION     0.000    0.078     1  18:40           0        0.82       0.372
  N54-13-1             JUNCTION     0.000    0.070     1  18:38           0       0.723       1.324
  N54-25-1             JUNCTION     0.000    0.049     1  18:38           0        1.03       0.030
  N54-27-1             JUNCTION     0.000    0.075     1  18:47           0        1.74       0.018
  N54-38               JUNCTION     0.088    0.141     1  18:37       0.881        2.62       0.070
  N54-4                JUNCTION     0.043    0.101     1  18:45       0.416        1.02       0.017
  N55-1                JUNCTION     0.051    0.051     1  18:39       0.556       0.556       0.008
  N56-1                JUNCTION     0.075    0.075     1  18:39        0.75        0.75       0.017
  N57-1                JUNCTION     0.044    0.044     1  18:39       0.472       0.472       0.010
  N58-1                JUNCTION     0.054    0.054     1  18:39       0.542       0.542       0.340
  N59-1                JUNCTION     0.014    0.014     1  18:39       0.136       0.136       0.007
  N59-12               JUNCTION     0.011    0.162     1  18:47       0.104         2.1       0.203
  N59-21-1             JUNCTION     0.037    0.235     1  18:47       0.382        3.22       0.734
  N59-28               JUNCTION     0.010    0.242     1  18:52       0.106        3.31       0.174
  N59-31               JUNCTION     0.199    0.376     1  18:45        2.04        7.42       0.105
  N59-39               JUNCTION     0.039    0.340     1  18:45        0.39        7.58       0.011
  N59-43-1             JUNCTION     0.000    0.364     1  18:45           0        7.92       0.003
  N59-47-1             JUNCTION     0.000    0.370     1  18:45           0        8.13       0.016
  N59-5-1              JUNCTION     0.000    0.080     1  18:35           0        1.02       0.175
  N59-8                JUNCTION     0.000    0.158     1  18:42           0        1.99       0.034
  N60-1                JUNCTION     0.049    0.049     1  18:39       0.503       0.503       0.145
  N60-4                JUNCTION     0.038    0.072     1  18:36       0.378        0.88       0.054
  N61-1                JUNCTION     0.071    0.071     1  18:39       0.731       0.748       3.682
  N6-16-1              JUNCTION     0.000    0.072     1  18:49           0        1.21       0.609
  N62-1                JUNCTION     0.033    0.033     1  18:39       0.338       0.338       0.216
  N6-29                JUNCTION     0.068    0.101     1  18:47       0.637       0.919       0.884
  N63-1                JUNCTION     0.021    0.021     1  18:39       0.211       0.211       0.122
  N64-1                JUNCTION     0.000    0.364     1  18:45           0        8.13       0.035
  N64-22               JUNCTION     0.041    0.388     1  18:47       0.411        8.54       0.024
  N64-30               JUNCTION     0.034    0.411     1  18:45       0.341        8.88       0.040
  N65-1                JUNCTION     0.024    0.024     1  18:39       0.236       0.236       0.047
  N65-32               JUNCTION     0.024    0.046     1  18:39       0.236       0.472       0.389
  N66-1                JUNCTION     0.000    0.952     0  00:01           0        8.89       0.003
  N66-3-1              JUNCTION     0.000    1.263     0  00:01           0        9.52       0.088
  N66-6                JUNCTION     0.009    2.078     0  00:00      0.0934          10       0.326
  N66-8-1              JUNCTION     0.000    2.366     0  00:00           0        10.7       0.379
  N67-1                JUNCTION     0.031    0.031     1  18:39       0.316       0.316       0.018
  N68-8                JUNCTION     0.045    0.237     1  18:45       0.452        2.07       1.830
  N6-9                 JUNCTION     0.024    0.069     1  18:37       0.237        1.17       0.279
  N7-1                 JUNCTION     0.083    0.083     1  18:39       0.843       0.843       0.044
  N8-21                JUNCTION     0.083    0.378     1  19:41        0.79        6.75       0.024
  N8-49-1              JUNCTION     0.000    0.455     1  19:52           0        7.34       0.144
  N8-67                JUNCTION     0.188    0.559     1  19:51        1.97         9.3       0.179
  N8-82                JUNCTION     0.164    0.635     1  19:43        1.69          11       0.162
  N8-96                JUNCTION     0.049    0.912     0  00:00       0.555        11.5       0.005
  N8-98-1              JUNCTION     0.000   10.216     0  00:00           0          22       0.289
  N1-30                OUTFALL      0.000    4.759     0  00:00           0        15.6       0.000
  N36-45               OUTFALL      0.000    1.186     1  18:46           0        15.6       0.000
  N66-12               OUTFALL      0.000    2.366     0  00:00           0        10.9       0.000
  N9-4                 OUTFALL      0.000   10.216     0  00:00           0        22.5       0.000
  
  
  **********************
  Node Surcharge Summary
  **********************
  
  Surcharging occurs when water rises above the top of the highest conduit.
  ---------------------------------------------------------------------
                                               Max. Height   Min. Depth
                                   Hours       Above Crown    Below Rim
  Node                 Type      Surcharged         Meters       Meters
  ---------------------------------------------------------------------
  N10-1                JUNCTION        4.01          0.245        0.000
  N10-17-1             JUNCTION        1.57          0.105        0.000
  N10-31-1             JUNCTION        0.05          0.001        0.000
  N11-1                JUNCTION       10.15          1.071        0.000
  N11-14-1             JUNCTION       11.21          1.078        0.000
  N11-19-1             JUNCTION       12.41          0.993        0.000
  N11-26-1             JUNCTION        9.56          0.587        0.000
  N11-31-1             JUNCTION       12.62          0.674        0.000
  N11-5                JUNCTION       11.58          1.172        0.000
  N11-9                JUNCTION       10.45          1.075        0.000
  N12-13-1             JUNCTION        9.42          0.931        0.000
  N12-20-1             JUNCTION       10.62          1.155        0.000
  N12-28               JUNCTION        8.37          0.754        0.000
  N12-35-1             JUNCTION        6.55          0.410        0.000
  N12-7                JUNCTION       10.25          1.089        0.000
  N13-18-1             JUNCTION        3.56          0.221        0.000
  N13-25-1             JUNCTION        2.85          0.183        0.000
  N13-7-1              JUNCTION        6.10          0.343        0.000
  N14-1                JUNCTION        6.90          0.171        0.000
  N15-1                JUNCTION       14.43          0.813        0.000
  N16-1                JUNCTION       10.05          0.659        0.000
  N17-1                JUNCTION        8.43          0.641        0.000
  N17-13-1             JUNCTION        7.88          0.555        0.000
  N17-18               JUNCTION        8.03          0.577        0.000
  N18-1                JUNCTION        9.77          0.780        0.000
  N19-1                JUNCTION       10.25          1.099        0.000
  N19-10               JUNCTION       10.35          1.075        0.000
  N20-1                JUNCTION        6.75          0.503        0.000
  N20-33               JUNCTION       10.31          1.128        0.000
  N2-1                 JUNCTION        4.05          0.257        0.000
  N21-1                JUNCTION        8.51          0.825        0.000
  N21-10               JUNCTION        7.33          0.603        0.000
  N21-11-1             JUNCTION        7.07          0.538        0.000
  N21-15-1             JUNCTION        6.98          0.512        0.000
  N21-19               JUNCTION        7.67          0.689        0.000
  N21-24               JUNCTION        8.24          0.802        0.000
  N21-5-1              JUNCTION        8.33          0.818        0.000
  N22-1                JUNCTION        7.43          0.630        0.000
  N23-1                JUNCTION        7.64          0.681        0.000
  N24-1                JUNCTION        6.56          0.440        0.000
  N25-1                JUNCTION        9.52          0.869        0.000
  N26-6                JUNCTION       10.24          1.347        0.000
  N27-15               JUNCTION       13.37          1.687        0.000
  N27-30               JUNCTION       11.49          1.453        0.000
  N28-1                JUNCTION       10.73          1.176        0.000
  N29-1                JUNCTION        9.51          0.947        0.000
  N30-1                JUNCTION       12.01          1.322        0.000
  N30-5                JUNCTION        9.93          0.987        0.000
  N31-1                JUNCTION       11.83          1.664        0.000
  N31-15-1             JUNCTION       14.21          1.849        0.000
  N31-17-1             JUNCTION       15.32          1.852        0.000
  N31-22-1             JUNCTION       12.88          1.720        0.000
  N31-32-1             JUNCTION       10.02          1.446        0.000
  N31-48               JUNCTION       12.67          1.524        0.000
  N32-1                JUNCTION       13.25          1.767        0.000
  N33-1                JUNCTION       12.93          1.743        0.000
  N34-1                JUNCTION       13.22          1.812        0.000
  N34-11-1             JUNCTION       13.20          1.798        0.000
  N35-1                JUNCTION        8.26          1.272        0.000
  N36-29               JUNCTION        0.67          0.097        0.000
  N37-12               JUNCTION        0.73          0.058        0.000
  N38-11               JUNCTION        0.56          0.114        0.000
  N38-1-1              JUNCTION        0.90          0.111        0.000
  N38-18               JUNCTION        4.16          0.286        0.000
  N38-29               JUNCTION        4.92          0.306        0.000
  N38-31               JUNCTION        5.54          0.320        0.000
  N38-43               JUNCTION        0.12          0.019        0.000
  N38-49               JUNCTION        0.57          0.108        0.000
  N39-12               JUNCTION        1.66          0.146        0.000
  N39-7                JUNCTION        0.15          0.021        0.000
  N4-1                 JUNCTION        7.31          0.621        0.000
  N42-14               JUNCTION       10.06          0.365        0.000
  N42-26-1             JUNCTION        6.90          0.220        0.000
  N43-14               JUNCTION        4.24          0.214        0.000
  N43-27-1             JUNCTION        0.15          0.019        0.000
  N43-4                JUNCTION        0.20          0.036        0.000
  N44-1                JUNCTION        7.46          0.359        0.000
  N45-1                JUNCTION        0.16          0.022        0.000
  N46-1                JUNCTION        2.94          0.187        0.000
  N46-15               JUNCTION        2.01          0.157        0.000
  N48-1                JUNCTION        6.71          0.254        0.000
  N5-1                 JUNCTION        6.46          0.358        0.000
  N51-1                JUNCTION        9.38          0.353        0.000
  N5-11                JUNCTION        6.73          0.377        0.000
  N51-9                JUNCTION        9.85          0.380        0.000
  N52-11               JUNCTION        4.22          0.211        0.000
  N5-3                 JUNCTION        6.88          0.389        0.000
  N54-10-1             JUNCTION        1.30          0.199        0.000
  N54-13-1             JUNCTION        6.92          0.364        0.000
  N54-25-1             JUNCTION        0.27          0.071        0.000
  N54-27-1             JUNCTION        0.53          0.114        0.000
  N54-38               JUNCTION        3.59          0.280        0.000
  N56-1                JUNCTION        0.63          0.124        0.000
  N58-1                JUNCTION        2.66          0.241        0.000
  N59-12               JUNCTION        1.22          0.200        0.000
  N59-21-1             JUNCTION        1.23          0.191        0.000
  N59-28               JUNCTION        4.64          0.326        0.000
  N59-31               JUNCTION        2.70          0.222        0.000
  N59-43-1             JUNCTION        0.33          0.077        0.000
  N59-47-1             JUNCTION        0.80          0.094        0.000
  N59-5-1              JUNCTION        1.18          0.194        0.000
  N59-8                JUNCTION        0.60          0.121        0.000
  N60-1                JUNCTION        0.90          0.148        0.000
  N61-1                JUNCTION        6.58          0.430        0.000
  N6-16-1              JUNCTION        7.09          0.386        0.000
  N6-29                JUNCTION        7.27          0.386        0.000
  N64-1                JUNCTION        0.21          0.026        0.000
  N65-32               JUNCTION        0.06          0.001        0.000
  N68-8                JUNCTION        0.48          0.017        0.683
  N6-9                 JUNCTION        6.63          0.355        0.000
  N7-1                 JUNCTION        3.49          0.211        0.000
  N8-98-1              JUNCTION        0.01          0.821        0.000
  
  
  *********************
  Node Flooding Summary
  *********************
  
  Flooding refers to all water that overflows a node, whether it ponds or not.
  --------------------------------------------------------------------------
                                                             Total   Maximum
                                 Maximum   Time of Max       Flood    Ponded
                        Hours       Rate    Occurrence      Volume     Depth
  Node                 Flooded       CMS   days hr:min    10^6 ltr    Meters
  --------------------------------------------------------------------------
  N10-1                   4.01     0.025      1  18:40       0.037     0.245
  N10-17-1                1.57     0.026      1  18:40       0.018     0.105
  N10-31-1                0.04     0.004      1  18:45       0.000     0.001
  N11-1                  10.15     0.030      1  18:39       0.102     1.071
  N11-14-1               11.20     0.024      1  17:28       0.089     1.078
  N11-19-1               12.41     0.022      1  17:27       0.080     0.993
  N11-26-1                9.56     0.023      1  18:37       0.061     0.587
  N11-31-1               12.62     0.025      1  17:27       0.073     0.674
  N11-5                  11.58     0.019      1  18:39       0.075     1.172
  N11-9                  10.45     0.020      1  17:29       0.071     1.075
  N12-13-1                9.42     0.032      1  18:39       0.098     0.931
  N12-20-1               10.62     0.029      1  18:39       0.109     1.155
  N12-28                  8.37     0.023      1  18:39       0.063     0.754
  N12-35-1                6.55     0.022      1  18:45       0.053     0.410
  N12-7                  10.25     0.021      1  18:39       0.075     1.089
  N13-18-1                3.56     0.029      1  18:37       0.032     0.221
  N13-25-1                2.85     0.027      1  18:37       0.024     0.183
  N13-7-1                 6.10     0.034      1  18:38       0.068     0.343
  N14-1                   6.89     0.022      1  18:36       0.036     0.171
  N15-1                  14.43     0.020      1  18:36       0.074     0.813
  N16-1                  10.05     0.019      1  18:39       0.053     0.659
  N17-1                   8.43     0.015      1  18:42       0.039     0.641
  N17-13-1                7.88     0.017      1  18:39       0.040     0.555
  N17-18                  8.03     0.015      1  18:39       0.035     0.577
  N18-1                   9.77     0.015      1  18:38       0.044     0.780
  N19-1                  10.25     0.030      1  17:28       0.083     1.099
  N19-10                 10.35     0.021      1  18:39       0.075     1.075
  N20-1                   6.75     0.045      1  18:39       0.083     0.503
  N20-33                 10.31     0.037      1  17:26       0.110     1.128
  N2-1                    4.05     0.025      1  18:37       0.033     0.257
  N21-1                   8.50     0.018      1  18:38       0.047     0.825
  N21-10                  7.33     0.019      1  18:39       0.037     0.603
  N21-11-1                7.07     0.019      1  18:42       0.040     0.538
  N21-15-1                6.98     0.020      1  18:43       0.037     0.512
  N21-19                  7.67     0.019      1  18:37       0.042     0.689
  N21-24                  8.24     0.019      1  18:37       0.049     0.802
  N21-5-1                 8.33     0.019      1  18:39       0.051     0.818
  N22-1                   7.43     0.021      1  18:38       0.037     0.630
  N23-1                   7.64     0.023      1  18:36       0.045     0.681
  N24-1                   6.56     0.013      1  18:49       0.029     0.440
  N25-1                   9.52     0.021      1  18:39       0.049     0.869
  N26-6                  10.24     0.035      1  18:39       0.114     1.347
  N27-15                 13.37     0.038      1  18:39       0.137     1.687
  N27-30                 11.49     0.028      1  18:39       0.099     1.453
  N28-1                  10.73     0.027      1  18:36       0.093     1.176
  N29-1                   9.51     0.021      1  18:39       0.066     0.947
  N30-1                  12.00     0.029      1  18:39       0.099     1.322
  N30-5                   9.93     0.021      1  18:38       0.069     0.987
  N31-1                  11.83     0.041      1  18:42       0.131     1.664
  N31-15-1               14.21     0.045      1  18:39       0.164     1.849
  N31-17-1               15.31     0.041      1  18:39       0.151     1.852
  N31-22-1               12.88     0.047      1  18:39       0.161     1.720
  N31-32-1               10.01     0.061      1  18:39       0.178     1.446
  N31-48                 12.67     0.046      1  18:39       0.147     1.524
  N32-1                  13.25     0.040      1  18:39       0.133     1.767
  N33-1                  12.93     0.040      1  18:39       0.129     1.743
  N34-1                  13.22     0.033      1  18:39       0.110     1.812
  N34-11-1               13.20     0.040      1  18:39       0.140     1.798
  N35-1                   8.26     0.036      1  18:42       0.093     1.272
  N36-29                  0.67     0.048      1  18:39       0.020     0.097
  N37-12                  0.73     0.028      1  18:38       0.010     0.058
  N38-11                  0.56     0.023      1  18:39       0.008     0.114
  N38-1-1                 0.90     0.024      1  18:38       0.011     0.111
  N38-18                  4.16     0.027      1  18:35       0.046     0.286
  N38-29                  4.92     0.025      1  18:36       0.044     0.306
  N38-31                  5.53     0.026      1  18:37       0.054     0.320
  N38-43                  0.12     0.008      1  18:43       0.001     0.019
  N38-49                  0.57     0.021      1  18:38       0.007     0.108
  N39-12                  1.66     0.025      1  18:35       0.018     0.146
  N39-7                   0.15     0.013      1  18:42       0.001     0.021
  N4-1                    7.31     0.042      1  18:39       0.086     0.621
  N42-14                 10.06     0.031      1  17:27       0.073     0.365
  N42-26-1                6.90     0.036      1  17:29       0.083     0.220
  N43-14                  4.24     0.037      1  18:36       0.058     0.214
  N43-27-1                0.15     0.018      1  18:42       0.003     0.019
  N43-4                   0.20     0.019      1  18:40       0.003     0.036
  N44-1                   7.46     0.020      1  17:27       0.055     0.359
  N45-1                   0.16     0.006      1  18:44       0.001     0.022
  N46-1                   2.94     0.035      1  18:37       0.040     0.187
  N46-15                  2.01     0.044      1  18:36       0.036     0.157
  N48-1                   6.71     0.033      1  17:28       0.097     0.254
  N5-1                    6.45     0.017      1  18:39       0.038     0.358
  N51-1                   9.38     0.017      1  17:28       0.051     0.353
  N5-11                   6.73     0.022      1  18:38       0.050     0.377
  N51-9                   9.85     0.018      1  17:28       0.063     0.380
  N52-11                  4.22     0.025      1  18:38       0.040     0.211
  N5-3                    6.88     0.018      1  18:40       0.048     0.389
  N54-10-1                1.30     0.026      1  18:37       0.018     0.199
  N54-13-1                6.92     0.035      1  17:27       0.079     0.364
  N54-25-1                0.27     0.018      1  18:42       0.005     0.071
  N54-27-1                0.53     0.023      1  18:38       0.008     0.114
  N54-38                  3.59     0.031      1  18:36       0.042     0.280
  N56-1                   0.63     0.016      1  18:38       0.007     0.124
  N58-1                   2.66     0.022      1  18:38       0.024     0.241
  N59-12                  1.22     0.028      1  18:37       0.019     0.200
  N59-21-1                1.23     0.044      1  18:36       0.029     0.191
  N59-28                  4.64     0.027      1  18:22       0.049     0.326
  N59-31                  2.70     0.043      1  18:35       0.050     0.222
  N59-43-1                0.33     0.019      1  18:39       0.006     0.077
  N59-47-1                0.79     0.020      1  18:37       0.008     0.094
  N59-5-1                 1.18     0.029      1  18:37       0.017     0.194
  N59-8                   0.60     0.028      1  18:38       0.007     0.121
  N60-1                   0.90     0.018      1  18:38       0.009     0.148
  N61-1                   6.58     0.041      1  17:27       0.098     0.430
  N6-16-1                 7.09     0.030      2  00:12       0.083     0.386
  N6-29                   7.27     0.029      1  18:35       0.083     0.386
  N64-1                   0.21     0.011      1  18:43       0.002     0.026
  N65-32                  0.06     0.004      1  18:40       0.000     0.001
  N6-9                    6.63     0.023      2  00:13       0.052     0.355
  N7-1                    3.49     0.026      1  18:36       0.026     0.211
  N8-98-1                 0.01     6.088      0  00:00       0.011     0.081
  
  
  ***********************
  Outfall Loading Summary
  ***********************
  
  -----------------------------------------------------------
                         Flow       Avg       Max       Total
                         Freq      Flow      Flow      Volume
  Outfall Node           Pcnt       CMS       CMS    10^6 ltr
  -----------------------------------------------------------
  N1-30                100.00     0.060     4.759      15.604
  N36-45                78.13     0.077     1.186      15.610
  N66-12                99.97     0.042     2.366      10.874
  N9-4                  99.94     0.087    10.216      22.492
  -----------------------------------------------------------
  System                94.51     0.266    15.127      64.581
  
  
  ********************
  Link Flow Summary
  ********************
  
  -----------------------------------------------------------------------------
                                 Maximum  Time of Max   Maximum    Max/    Max/
                                  |Flow|   Occurrence   |Veloc|    Full    Full
  Link                 Type          CMS  days hr:min     m/sec    Flow   Depth
  -----------------------------------------------------------------------------
  CDB                  CONDUIT     0.128     1  18:43      0.80    0.41    1.00
  CDQD                 CONDUIT     0.380     1  20:16      0.73    0.10    0.66
  CQD                  CONDUIT     0.336     1  19:40      0.51    0.10    0.79
  LN1-0                CONDUIT     0.644     1  19:36      1.64    0.87    0.62
  LN10-1               CONDUIT     0.164     1  18:53      0.68    4.42    1.00
  LN10-2               CONDUIT     0.214     1  18:51      0.91    1.30    1.00
  LN10-3               CONDUIT     0.294     1  18:47      1.50    1.00    0.82
  LN1-1                CONDUIT     0.646     1  19:36      0.99    0.34    0.79
  LN11-2               CONDUIT     0.156     1  19:54      0.65    0.53    1.00
  LN11-3               CONDUIT     0.158     1  19:55      0.66    0.82    1.00
  LN11-4               CONDUIT     0.161     1  20:09      0.67    0.98    1.00
  LN11-5               CONDUIT     0.262     1  20:44      1.09    1.37    1.00
  LN11-6               CONDUIT     0.291     1  20:44      1.21    1.05    1.00
  LN11-7               CONDUIT     0.315     1  20:33      1.31    0.82    1.00
  LN11-8               CONDUIT     0.339     1  20:27      1.43    0.86    1.00
  LN11-9               CONDUIT     0.380     1  20:16      1.82    1.06    0.87
  LN1-2                CONDUIT     0.693     1  18:46      1.22    2.20    0.94
  LN12-0               CONDUIT     0.069     1  18:39      0.29    0.74    1.00
  LN12-1               CONDUIT     0.082     1  18:40      0.34    0.29    1.00
  LN12-2               CONDUIT     0.068     1  18:37      0.28    0.24    1.00
  LN12-3               CONDUIT     0.066     1  18:33      0.27    0.17    1.00
  LN12-4               CONDUIT     0.060     1  20:26      0.31    0.18    1.00
  LN12-5               CONDUIT     0.226     1  20:31      1.23    0.68    0.77
  LN1-3                CONDUIT     1.290     0  00:00      3.28    2.70    0.86
  LN13-0               CONDUIT     0.168     1  18:43      0.70    1.25    1.00
  LN13-1               CONDUIT     0.082     1  19:18      0.35    0.48    1.00
  LN13-2               CONDUIT     0.076     1  18:35      0.32    0.57    1.00
  LN13-3               CONDUIT     0.049     1  18:39      0.36    0.11    0.62
  LN13-4               CONDUIT     0.005     1  18:51      0.15    0.03    0.14
  LN1-4                CONDUIT     4.759     0  00:00      3.56    0.14    0.55
  LN14-1               CONDUIT     0.087     1  18:40      0.60    0.67    0.99
  LN15-1               CONDUIT     0.055     1  18:39      0.34    0.54    1.00
  LN16-1               CONDUIT     0.048     1  18:43      0.30    0.63    1.00
  LN17-1               CONDUIT     0.014     1  18:43      0.15    0.10    1.00
  LN17-2               CONDUIT     0.027     1  19:52      0.52    0.18    1.00
  LN17-3               CONDUIT     0.033     1  19:52      0.26    0.08    1.00
  LN18-1               CONDUIT     0.018     1  18:43      0.12    0.06    1.00
  LN19-1               CONDUIT     0.092     1  21:25      0.57    1.51    1.00
  LN19-2               CONDUIT     0.105     1  22:01      0.66    1.02    1.00
  LN20-1               CONDUIT     0.106     1  18:42      0.66    0.58    1.00
  LN20-2               CONDUIT     0.108     1  18:44      0.68    2.41    1.00
  LN2-1                CONDUIT     0.094     1  18:43      0.60    0.70    1.00
  LN21-1               CONDUIT     0.028     1  18:38      0.18    0.36    1.00
  LN21-2               CONDUIT     0.038     1  18:39      0.24    0.15    1.00
  LN21-3               CONDUIT     0.049     1  18:39      0.32    0.21    1.00
  LN21-4               CONDUIT     0.050     1  18:42      0.49    0.31    1.00
  LN21-5               CONDUIT     0.043     1  18:45      0.72    0.18    1.00
  LN21-6               CONDUIT     0.046     1  23:15      0.58    0.21    1.00
  LN21-7               CONDUIT     0.052     1  23:15      0.33    0.18    1.00
  LN22-1               CONDUIT     0.011     1  18:38      0.07    0.04    1.00
  LN23-1               CONDUIT     0.015     1  18:39      0.15    0.11    1.00
  LN24-1               CONDUIT     0.016     1  18:38      0.37    0.12    1.00
  LN25-1               CONDUIT     0.007     2  02:41      0.05    0.05    1.00
  LN26-0               CONDUIT     0.123     1  20:07      0.77    0.53    1.00
  LN26-1               CONDUIT     0.149     1  20:25      0.93    2.53    1.00
  LN27-0               CONDUIT     0.104     1  19:53      0.65    1.10    1.00
  LN27-1               CONDUIT     0.122     1  19:54      0.76    0.85    1.00
  LN28-1               CONDUIT     0.048     1  18:40      0.30    0.39    1.00
  LN29-1               CONDUIT     0.036     1  18:39      0.23    0.25    1.00
  LN30-1               CONDUIT     0.164     1  20:18      1.03    0.75    1.00
  LN30-2               CONDUIT     0.169     1  20:20      1.06    0.49    1.00
  LN3-1                CONDUIT     0.076     1  18:39      0.74    0.46    0.87
  LN31-1               CONDUIT     0.020     1  18:41      0.12    0.15    1.00
  LN31-2               CONDUIT     0.092     1  20:25      0.57    0.97    1.00
  LN31-3               CONDUIT     0.065     1  18:43      0.40    0.28    1.00
  LN31-4               CONDUIT     0.055     1  17:29      0.35    0.28    1.00
  LN31-5               CONDUIT     0.108     1  20:33      0.67    0.83    1.00
  LN31-6               CONDUIT     0.153     1  20:18      0.96    1.99    1.00
  LN32-1               CONDUIT     0.056     1  18:46      0.35    0.33    1.00
  LN33-1               CONDUIT     0.061     1  18:43      0.38    2.45    1.00
  LN34-1               CONDUIT     0.109     1  18:42      0.68    3.84    1.00
  LN34-2               CONDUIT     0.111     1  18:40      0.70    0.72    1.00
  LN35-1               CONDUIT     0.045     1  18:36      0.42    0.14    1.00
  LN36-1               CONDUIT     0.209     1  18:45      1.08    0.11    0.25
  LN36-2               CONDUIT     0.119     1  18:47      0.35    0.06    0.35
  LN36-3               CONDUIT     0.065     1  18:52      0.19    0.06    0.47
  LN36-4               CONDUIT     0.261     1  18:45      0.69    0.13    0.39
  LN36-5               CONDUIT     0.748     1  18:46      1.12    0.24    0.67
  LN36-6               CONDUIT     0.795     1  18:47      1.16    0.27    0.68
  LN36-7               CONDUIT     1.186     1  18:46      2.29    0.24    0.33
  LN37-0               CONDUIT     0.260     1  18:46      0.18    0.12    1.00
  LN37-1               CONDUIT     0.305     1  18:47      0.28    0.06    0.77
  LN38-1               CONDUIT     0.107     1  18:44      0.67    1.03    1.00
  LN38-2               CONDUIT     0.081     1  18:42      0.50    0.49    1.00
  LN38-3               CONDUIT     0.027     1  18:36      0.17    0.47    1.00
  LN38-4               CONDUIT     0.023     1  18:45      0.14    0.22    1.00
  LN38-5               CONDUIT     0.056     1  18:44      0.35    0.31    1.00
  LN38-6               CONDUIT     0.100     1  18:45      0.63    0.59    1.00
  LN38-7               CONDUIT     0.135     1  18:45      0.84    0.72    1.00
[...]
  LN38-4                  1.00   0.00  0.00  0.00  1.00  0.00  0.00  0.00  0.00  0.00
  LN38-5                  1.00   0.00  0.00  0.00  1.00  0.00  0.00  0.00  0.88  0.00
  LN38-6                  1.00   0.00  0.00  0.00  1.00  0.00  0.00  0.00  0.90  0.00
  LN38-7                  1.00   0.00  0.00  0.00  0.75  0.00  0.00  0.25  0.13  0.00
  LN39-1                  1.00   0.00  0.04  0.00  0.96  0.00  0.00  0.00  0.00  0.00
  LN39-2                  1.00   0.00  0.00  0.00  1.00  0.00  0.00  0.00  0.01  0.00
  LN40-1                  1.00   0.00  0.00  0.00  1.00  0.00  0.00  0.00  1.00  0.00
  LN4-1                   1.00   0.00  0.00  0.00  0.14  0.00  0.85  0.00  0.00  0.00
  LN41-1                  1.00   0.00  0.00  0.00  0.84  0.00  0.00  0.16  0.84  0.00
  LN42-0                  1.00   0.00  0.90  0.00  0.10  0.00  0.00  0.00  0.33  0.00
  LN42-1                  1.00   0.00  0.08  0.00  0.80  0.00  0.12  0.00  0.00  0.00
  LN43-0                  1.00   0.00  0.04  0.00  0.96  0.00  0.00  0.00  0.05  0.00
  LN43-1                  1.00   0.00  0.00  0.00  1.00  0.00  0.00  0.00  0.05  0.00
  LN43-2                  1.00   0.00  0.02  0.00  0.98  0.00  0.00  0.00  0.03  0.00
  LN43-3                  1.00   0.02  0.38  0.00  0.60  0.00  0.00  0.00  0.44  0.00
  LN44-1                  1.00   0.00  0.02  0.00  0.15  0.00  0.83  0.00  0.00  0.00
  LN45-1                  1.00   0.00  0.00  0.00  0.15  0.00  0.00  0.85  0.01  0.00
  LN46-1                  1.00   0.00  0.00  0.00  1.00  0.00  0.00  0.00  0.03  0.00
  LN46-2                  1.00   0.00  0.00  0.00  1.00  0.00  0.00  0.00  0.11  0.00
  LN46-3                  1.00   0.00  0.04  0.00  0.96  0.00  0.00  0.00  0.02  0.00
  LN47-0                  1.00   0.00  0.00  0.00  1.00  0.00  0.00  0.00  0.00  0.00
  LN47-1                  1.00   0.00  0.22  0.00  0.00  0.00  0.78  0.00  0.00  0.00
  LN48-1                  1.00   0.00  0.00  0.00  1.00  0.00  0.00  0.00  0.92  0.00
  LN48-2                  1.00   0.00  0.00  0.00  1.00  0.00  0.00  0.00  1.00  0.00
  LN48-3                  1.00   0.00  0.00  0.00  1.00  0.00  0.00  0.00  0.78  0.00
  LN48-4                  1.00   0.00  0.01  0.00  0.80  0.00  0.19  0.00  0.00  0.00
  LN49-1                  1.00   0.00  0.00  0.00  1.00  0.00  0.00  0.00  0.01  0.00
  LN49-2                  1.00   0.00  0.00  0.00  1.00  0.00  0.00  0.00  0.00  0.00
  LN49-3                  1.00   0.00  0.08  0.00  0.02  0.00  0.90  0.00  0.00  0.00
  LN50-0                  1.00   0.00  0.00  0.00  1.00  0.00  0.00  0.00  1.00  0.00
  LN50-1                  1.00   0.00  0.00  0.00  0.03  0.00  0.00  0.97  0.02  0.00
  LN5-1                   1.00   0.00  0.01  0.00  0.99  0.00  0.00  0.00  0.00  0.00
  LN51-1                  1.00   0.00  0.01  0.00  0.99  0.00  0.00  0.00  0.00  0.00
  LN51-2                  1.00   0.00  0.03  0.00  0.86  0.00  0.11  0.00  0.00  0.00
  LN5-2                   1.00   0.00  0.00  0.00  1.00  0.00  0.00  0.00  0.00  0.00
  LN52-0                  1.00   0.00  0.05  0.00  0.88  0.00  0.07  0.00  0.00  0.00
  LN52-1                  1.00   0.00  0.00  0.00  0.98  0.00  0.00  0.02  0.02  0.00
  LN5-3                   1.00   0.00  0.04  0.00  0.12  0.00  0.84  0.00  0.00  0.00
  LN53-0                  1.00   0.04  0.05  0.00  0.91  0.00  0.00  0.00  0.06  0.00
  LN54-0                  1.00   0.00  0.00  0.00  0.10  0.00  0.00  0.90  0.08  0.00
  LN54-1                  1.00   0.00  0.00  0.00  1.00  0.00  0.00  0.00  0.91  0.00
  LN54-2                  1.00   0.00  0.00  0.00  1.00  0.00  0.00  0.00  0.03  0.00
  LN54-3                  1.00   0.00  0.00  0.00  1.00  0.00  0.00  0.00  0.07  0.00
  LN54-4                  1.00   0.00  0.00  0.00  1.00  0.00  0.00  0.00  0.86  0.00
  LN54-5                  1.00   0.00  0.00  0.00  1.00  0.00  0.00  0.00  0.90  0.00
  LN54-6                  1.00   0.00  0.00  0.00  0.85  0.00  0.00  0.15  0.01  0.00
  LN55-1                  1.00   0.00  0.00  0.00  1.00  0.00  0.00  0.00  0.90  0.00
  LN56-1                  1.00   0.00  0.00  0.00  1.00  0.00  0.00  0.00  0.00  0.00
  LN57-1                  1.00   0.00  0.00  0.00  1.00  0.00  0.00  0.00  0.98  0.00
  LN58-1                  1.00   0.00  0.00  0.00  1.00  0.00  0.00  0.00  0.00  0.00
  LN59-1                  1.00   0.00  0.00  0.00  1.00  0.00  0.00  0.00  0.98  0.00
  LN59-10                 1.00   0.00  0.00  0.00  1.00  0.00  0.00  0.00  0.00  0.00
  LN59-2                  1.00   0.00  0.00  0.00  1.00  0.00  0.00  0.00  0.01  0.00
  LN59-3                  1.00   0.00  0.00  0.00  1.00  0.00  0.00  0.00  0.08  0.00
  LN59-4                  1.00   0.00  0.00  0.00  0.94  0.00  0.00  0.06  0.00  0.00
  LN59-5                  1.00   0.00  0.01  0.00  0.94  0.00  0.05  0.00  0.00  0.00
  LN59-6                  1.00   0.00  0.00  0.00  1.00  0.00  0.00  0.00  0.00  0.00
  LN59-7                  1.00   0.00  0.00  0.00  1.00  0.00  0.00  0.00  0.10  0.00
  LN59-8                  1.00   0.00  0.00  0.00  1.00  0.00  0.00  0.00  0.91  0.00
  LN59-9                  1.00   0.00  0.00  0.00  1.00  0.00  0.00  0.00  0.81  0.00
  LN6-0                   1.00   0.00  0.09  0.00  0.14  0.00  0.77  0.00  0.00  0.00
  LN60-1                  1.00   0.00  0.00  0.00  1.00  0.00  0.00  0.00  0.01  0.00
  LN60-2                  1.00   0.00  0.00  0.00  0.14  0.00  0.00  0.86  0.09  0.00
  LN6-1                   1.00   0.00  0.00  0.00  1.00  0.00  0.00  0.00  0.01  0.00
  LN61-1                  1.00   0.00  0.00  0.00  1.00  0.00  0.00  0.00  0.02  0.00
  LN6-2                   1.00   0.00  0.00  0.00  1.00  0.00  0.00  0.00  0.01  0.00
  LN62-1                  1.00   0.00  0.00  0.00  0.10  0.00  0.00  0.90  0.10  0.00
  LN6-3                   1.00   0.00  0.95  0.00  0.00  0.00  0.05  0.00  0.00  0.00
  LN63-1                  1.00   0.00  0.00  0.00  0.13  0.00  0.00  0.87  0.03  0.00
  LN64-1                  1.00   0.00  0.00  0.00  1.00  0.00  0.00  0.00  0.09  0.00
  LN64-2                  1.00   0.00  0.00  0.00  1.00  0.00  0.00  0.00  0.87  0.00
  LN64-3                  1.00   0.00  0.00  0.00  0.00  0.00  0.00  1.00  0.00  0.00
  LN65-1                  1.00   0.00  0.00  0.00  1.00  0.00  0.00  0.00  1.00  0.00
  LN65-2                  1.00   0.00  0.03  0.00  0.00  0.00  0.97  0.00  0.00  0.00
  LN66-1                  1.00   0.00  0.00  0.00  1.00  0.00  0.00  0.00  0.00  0.00
  LN66-2                  1.00   0.00  0.00  0.00  1.00  0.00  0.00  0.00  0.00  0.00
  LN66-3                  1.00   0.00  0.00  0.00  1.00  0.00  0.00  0.00  0.00  0.00
  LN66-4                  1.00   0.00  0.00  0.00  1.00  0.00  0.00  0.00  0.00  0.00
  LN67-1                  1.00   0.00  0.00  0.00  1.00  0.00  0.00  0.00  1.00  0.00
  LN68-0                  1.00   0.00  0.00  0.00  1.00  0.00  0.00  0.00  0.00  0.00
  LN68-1                  1.00   0.00  0.21  0.00  0.79  0.00  0.00  0.00  0.00  0.00
  LN7-1                   1.00   0.00  0.00  0.00  0.96  0.00  0.00  0.04  0.84  0.00
  LN8-0                   1.00   0.00  0.53  0.00  0.47  0.00  0.00  0.00  0.38  0.00
  LN8-1                   1.00   0.00  0.00  0.00  1.00  0.00  0.00  0.00  0.85  0.00
  LN8-2                   1.00   0.00  0.00  0.00  1.00  0.00  0.00  0.00  0.03  0.00
  LN8-3                   1.00   0.00  0.00  0.00  1.00  0.00  0.00  0.00  0.00  0.00
  LN8-4                   1.00   0.00  0.00  0.00  1.00  0.00  0.00  0.00  0.07  0.00
  LN8-5                   1.00   0.00  0.00  0.00  1.00  0.00  0.00  0.00  1.00  0.00
  LN8-6                   1.00   0.00  0.00  0.00  1.00  0.00  0.00  0.00  0.00  0.00
  LN9-0                   1.00   0.00  0.00  0.00  1.00  0.00  0.00  0.00  0.00  0.00
  
  
  *************************
  Conduit Surcharge Summary
  *************************
  
  ----------------------------------------------------------------------------
                                                           Hours        Hours 
                         --------- Hours Full --------   Above Full   Capacity
  Conduit                Both Ends  Upstream  Dnstream   Normal Flow   Limited
  ----------------------------------------------------------------------------
  CDB                         0.90      0.90      1.66      0.01         0.01
  LN10-1                      1.57      4.01      1.57      9.08         1.57
  LN10-2                      0.05      1.57      0.05      2.90         0.05
  LN10-3                      0.01      0.05      0.01      0.01         0.01
  LN11-2                     10.15     10.15     11.58      0.01         0.01
  LN11-3                     10.45     10.45     11.58      0.01         0.01
  LN11-4                     10.45     10.45     11.21      0.01         0.01
  LN11-5                     11.21     11.21     12.41      7.37         7.37
  LN11-6                      9.56      9.56     12.41      1.34         0.01
  LN11-7                      9.56      9.56     12.62      0.01         0.01
  LN11-8                      0.01      0.01     12.62      0.01         0.01
  LN11-9                      0.01      0.01      0.01      1.40         0.01
  LN1-2                       0.01      0.01      0.01      7.91         0.01
  LN12-0                     10.15     10.15     10.25      0.01         0.01
  LN12-1                      9.42      9.42     10.25      0.01         0.01
  LN12-2                      9.42      9.42     10.62      0.01         0.01
  LN12-3                      8.37      8.37     10.62      0.01         0.01
  LN12-4                      6.55      6.55      8.37      0.01         0.01
  LN12-5                      0.01      0.01      6.55      0.01         0.01
  LN1-3                       0.01      0.01      0.01      5.61         0.01
  LN13-0                      4.01      4.01      6.10      3.18         0.01
  LN13-1                      3.56      3.56      6.10      0.01         0.01
  LN13-2                      2.85      2.85      3.56      0.01         0.01
  LN13-3                      0.01      0.01      2.85      0.01         0.01
  LN14-1                      0.01      0.01      6.90      0.01         0.01
  LN15-1                     12.62     12.62     14.43      0.01         0.01
  LN16-1                      9.56      9.56     10.05      0.01         0.01
  LN17-1                      7.88      7.88      8.43      0.01         0.01
  LN17-2                      7.88      7.88      8.03      0.01         0.01
  LN17-3                      8.03      8.03     12.41      0.01         0.01
  LN18-1                      7.88      7.88      9.77      0.01         0.01
  LN19-1                     10.25     10.25     10.35      6.65         6.66
  LN19-2                     10.35     10.35     11.21      0.23         0.24
  LN20-1                      6.75      6.75     10.31      0.01         0.01
  LN20-2                     10.25     10.25     10.31      4.21         0.01
  LN2-1                       0.05      0.05      4.05      0.01         0.01
  LN21-1                      8.33      8.33      8.51      0.01         0.01
  LN21-2                      7.33      7.33      8.33      0.01         0.01
  LN21-3                      7.07      7.07      7.33      0.01         0.01
  LN21-4                      6.98      6.98      7.07      0.01         0.01
  LN21-5                      6.98      6.98      7.67      0.01         0.01
  LN21-6                      7.67      7.67      8.24      0.01         0.01
  LN21-7                      8.24      8.24     10.25      0.01         0.01
  LN22-1                      7.43      7.43      8.51      0.01         0.01
  LN23-1                      7.07      7.07      7.64      0.01         0.01
  LN24-1                      6.56      6.56      6.98      0.01         0.01
  LN25-1                      8.33      8.33      9.52      0.01         0.01
  LN26-0                     10.24     10.24     11.49      0.01         0.01
  LN26-1                     10.15     10.24     10.15      9.27         8.92
  LN27-0                     13.37     13.37     15.31      1.35         0.01
  LN27-1                     11.49     11.49     13.37      0.01         0.01
  LN28-1                      9.42      9.42     10.73      0.01         0.01
  LN29-1                      9.51      9.51     10.62      0.01         0.01
  LN30-1                      9.93      9.93     12.00      0.01         0.01
  LN30-2                      6.55      6.55     30.39      0.01         0.01
  LN3-1                       0.01      0.01      1.57      0.01         0.01
  LN31-1                     11.83     11.83     14.21      0.01         0.01
  LN31-2                     14.21     14.21     15.31      0.01         0.01
  LN31-3                     12.88     12.88     15.31      0.01         0.01
  LN31-4                     10.02     10.02     12.88      0.01         0.01
  LN31-5                     10.02     10.02     12.67      0.01         0.01
  LN31-6                     12.00     12.00     12.67      6.44         0.01
  LN32-1                     10.02     10.02     13.25      0.01         0.01
  LN33-1                     12.88     12.88     12.93      5.41         0.01
  LN34-1                     13.20     13.20     13.22      6.11         0.01
  LN34-2                     13.20     13.20     14.21      0.01         0.01
  LN35-1                      8.26      8.26     13.20      0.01         0.01
  LN36-5                      0.01      0.01      0.67      0.01         0.01
  LN36-6                      0.01      0.01      0.67      0.01         0.01
  LN37-0                      0.73      0.73      6.90      0.01         0.01
  LN37-1                      0.01      0.01      0.73      0.01         0.01
  LN38-1                      0.56      0.56      0.90      0.07         0.07
  LN38-2                      0.56      0.56      4.16      0.01         0.01
  LN38-3                      4.16      4.16      4.92      0.01         0.01
  LN38-4                      4.92      4.92      5.53      0.01         0.01
  LN38-5                      0.12      0.12      5.53      0.01         0.01
  LN38-6                      0.12      0.12      0.57      0.01         0.01
  LN38-7                      0.57      0.57      6.90      0.01         0.01
  LN39-1                      0.01      0.01      0.15      0.01         0.01
  LN39-2                      0.15      0.15      1.66      0.01         0.01
  LN40-1                      0.01      0.01      0.90      0.01         0.01
  LN4-1                       6.10      6.10      7.31      1.17         0.01
  LN41-1                      0.01      0.01      1.66      0.01         0.01
  LN42-0                      0.01      0.01     30.57      0.01         0.01
  LN42-1                      6.90      6.90     10.06      0.01         0.01
  LN43-0                      0.01      0.01      0.20      0.01         0.01
  LN43-1                      0.20      0.20      4.24      0.01         0.01
  LN43-2                      0.15      0.15      4.24      0.01         0.01
  LN43-3                      0.01      0.01      0.15      0.01         0.01
  LN44-1                      0.15      0.15      7.46      0.01         0.01
  LN45-1                      0.16      0.16      0.20      0.01         0.01
  LN46-1                      0.01      0.01      2.94      0.01         0.01
  LN46-2                      0.01      0.01      2.01      0.01         0.01
  LN46-3                      0.01      0.01      2.01      0.01         0.01
  LN48-1                      0.01      0.01      6.71      0.01         0.01
  LN5-1                       6.45      6.45      6.88      0.01         0.01
  LN51-1                      9.38      9.38      9.85      0.01         0.01
  LN51-2                      6.71      6.71      9.85      0.01         0.01
  LN5-2                       6.73      6.73      6.88      0.01         0.01
  LN52-0                      2.94      2.94      4.22      0.01         0.01
  LN52-1                      4.22      4.22      6.71      0.01         0.01
  LN5-3                       3.56      3.56      6.73      0.01         0.01
  LN53-0                      2.70      2.70      6.71      0.01         0.01
  LN54-0                      0.01      0.01      0.60      0.01         0.01
  LN54-1                      0.01      0.01      1.30      0.01         0.01
  LN54-2                      1.30      1.30      6.92      0.01         0.01
  LN54-3                      0.27      0.27      6.92      0.01         0.01
  LN54-4                      0.27      0.27      0.53      0.01         0.01
  LN54-5                      0.53      0.53      3.59      0.01         0.01
  LN54-6                      2.94      3.59      2.94      5.42         2.94
  LN55-1                      0.01      0.01      0.27      0.01         0.01
  LN56-1                      0.53      0.53      0.63      2.68         0.01
  LN57-1                      0.01      0.01      6.92      0.01         0.01
  LN58-1                      1.30      1.30      2.66      0.01         0.01
  LN59-1                      0.01      0.01      1.18      0.01         0.01
  LN59-10                     0.21      0.79      0.21     10.68         0.21
  LN59-2                      0.60      0.60      1.18      0.01         0.01
  LN59-3                      0.60      0.60      1.22      0.01         0.01
  LN59-4                      1.22      1.22      1.23      0.92         0.93
  LN59-5                      1.23      1.23      4.64      0.01         0.01
  LN59-6                      2.70      2.70      4.64      0.01         0.01
  LN59-7                      0.01      0.01      2.70      0.01         0.01
  LN59-8                      0.01      0.01      0.33      0.01         0.01
  LN59-9                      0.33      0.33      0.79      0.01         0.01
  LN6-0                       2.85      2.85      6.63      0.01         0.01
  LN60-1                      0.01      0.01      0.90      0.01         0.01
  LN60-2                      0.01      0.01      1.18      0.01         0.01
  LN6-1                       6.63      6.63      7.09      0.01         0.01
  LN61-1                      1.23      1.23      6.58      0.01         0.01
  LN6-2                       7.09      7.09      7.27      0.07         0.07
  LN62-1                      0.01      0.01      0.33      0.01         0.01
  LN6-3                       0.01      0.01     29.46      0.01         0.01
  LN63-1                      0.01      0.01      0.79      0.01         0.01
  LN64-1                      0.01      0.21      0.01      0.33         0.01
  LN64-3                      0.01      0.01      0.01      4.83         0.01
  LN65-1                      0.01      0.01      0.06      0.01         0.01
  LN65-2                      0.01      0.01      0.06      0.11         0.01
  LN66-4                      0.01      0.01      0.01      0.01         0.01
  LN68-0                      0.28      0.28      0.48      0.01         0.01
  LN68-1                      0.01      0.01      0.48      0.01         0.01
  LN7-1                       3.49      3.49      7.09      0.01         0.01
  LN8-3                       0.01      0.01      0.01      2.78         0.01
  LN8-5                       0.01      0.01      0.01      0.01         0.01
  LN8-6                       0.01      0.01      0.03      0.01         0.01
  LN9-0                      72.00     72.00     72.00      3.75        19.23
  

  Analysis begun on:  Wed Feb 23 10:38:19 2022
  Analysis ended on:  Wed Feb 23 10:39:44 2022
  Total elapsed time: 00:01:25